!pal6 tightscf cc-pv5z-dk m06l ri defgrid3 d3zero gdiis-opt verytightopt noautostart
%method
   D3S6 1.0000
   D3RS6 1.2170
   D3S8 0.7220
   D3ALPHA6 14.0
end
%geom
Scan
B 1 2 = 1.32, 2.63, 5
end
Constraints
{B 0 1 2.24 C}
{B 0 2 2.25 C}
{B 1 2 1.32 C}
end
end
#B1=BS1
*xyz 0 1 
B   1.428300000  -0.005000000   0.000000000
B  -0.706100000   0.660500000   0.000000000
S  -0.722300000  -0.655500000   0.000000000
*