!pal6 tightscf STO-3G ri-scs-rsx-qidh rijcosx defgrid2 uhf autoaux autoaux opt tightopt noautostart
%geom
Scan
B 0 1 = 2.50, 4.99, 5
end
end
#B(hashtag)[PH]
*xyz 0 2 
B   2.115400000   0.003500000   0.000000000
P  -0.380900000  -0.009900000   0.000000000
H  -1.734400000   0.006400000   0.000000000
*