!pal6 tightscf STO-3G mpwlyp defgrid3 uhf d3 autoaux numfreq engrad autoaux
%method
   D3s6 0.61
   D3s8 0
   D3a1 0
   D3a2 6.2
end
%mp2 Density relaxed end

#[CH]=O
*xyz 0 2 
C  -0.037000000  -0.000000000   0.000000000
O   1.139000000   0.000000000   0.000000000
H  -1.102000000   0.000000000   0.000000000
*