! b97-3c tightopt defgrid1 miniprint nomoprint
%pal nprocs 6 end
%maxcore 2000
%geom
tole 1e-8
tolmaxg 1e-5
tolrmsg 5e-6
tolmaxd 5e-5
tolrmsd 1e-5
end
#p1=ps1
*xyz 0 1 
p  -1.092100000  -0.596600000   0.000000000
p   1.092100000  -0.596600000  -0.000000000
s  -0.000000000   1.193100000   0.000000000
*