! ri-wb2plyp sp def2-msvp def2-svp/c rijcosx def2/j normalscf miniprint nomoprint nofinalgrid kdiis nososcf float defgrid3
%pal nprocs 1 end
%maxcore 4300
%scf
guessmode fmatrix
maxiter 512
directresetfreq 10
diismaxeq 10
end
%cis
mode riints_disk
nroots 4
triplets true
dcorr 1
maxcore 4300
etol 1e-4
rtol 1e-4
maxdim 3
maxiter 512
end
#ocl
*xyz 0 1 
o  -0.321600000   0.434800000   0.000000000
cl   1.264800000  -0.122400000   0.000000000
h  -0.943200000  -0.312400000   0.000000000
*