! ri-scs-wpbepp86 sp def2-svp def2-svp/c rijcosx def2/j strongscf miniprint nomoprint defgrid1 kdiis nososcf float
%pal nprocs 6 end
%maxcore 2000
%scf
guessmode fmatrix
maxiter 512
directresetfreq 10
diismaxeq 10
end
%cis
mode riints_disk
nroots 8
triplets true
dcorr 1
maxcore 2000
end
#o=p(hashtag)p
*xyz 0 1 
o   0.000000000   0.000000000   0.000000000
p   1.299000000   0.750000000   0.000000000
p   2.598100000   1.500000000   0.000000000
*