! rhf sp def2-tzvp def2-tzvp/c rijcosx def2/j tightscf miniprint nomoprint
%pal nprocs 10 end
%maxcore 16000
%cis
doscs true
nroots 4
triplets true
dcorr 3
maxcore 16000
end
#ocl
*xyz 0 1 
o  -0.321600000   0.434800000   0.000000000
cl   1.264800000  -0.122400000   0.000000000
h  -0.943200000  -0.312400000   0.000000000
*