! uks b3lyp def2-tzvp tightscf slowconv uno uco d3bj autoaux moread notrah
%moinp "3-1_b3lyp_fat_read.gbw"
%scf
maxiter 2000
diismaxeq 15
directresetfreq 1
end
%pal nprocs 32
end
%maxcore 7500
%basis
newgto fe "cp(ppp)" end
end
%method
specialgridatoms 26
specialgridintacc 7
end
#[ch]=o
*xyz 0 2 
c  -0.037000000  -0.000000000   0.000000000
o   1.139000000   0.000000000   0.000000000
h  -1.102000000   0.000000000   0.000000000
*
%eprnmr
nuclei = all fe {fgrad, rho}
end