! rks bp86 d3bj def2-svp def2/j ri slowconv tightscf nofinalgrid  opt freq
%scf
  maxiter  500
  end
%maxcore 1900
%pal
  nprocs 16
  end
%cpcm
  smd true
  smdsolvent "dibutylether"
  end
%freq temp 393.15
  end
#b1=bo1
*xyz 0 1 
b  -1.053100000  -0.072900000   0.000000000
b   1.204100000  -0.048600000   0.000000000
o  -0.151100000   0.121500000   0.000000000
*