!rhf ip-eom-dlpno-ccsd rijcosx def2-svp def2-svp/c def2/j 
%maxcore 80000
 %mdci
 printlevel 3
 nroots 3
 followcis true
 maxiter 2000
 dtol 1e-5
normalpnofraginter    {1 1}
normalpnofraginter    {1 2}
hffragmentinteraction {2 2}
 end
#o=s
*xyz 0 1 
o   0.828900000   0.000000000   0.000000000
s  -0.828900000   0.000000000   0.000000000
*