! b3lyp d3bj def2-svp def2/j looseopt nofinalgrid miniprint nomoprint defgrid3
%pal nprocs 40 end
%maxcore 4300
%geom 
scan
b 0 1 = a.aa, b.bb, 7
end
end
#n(hashtag)p=s
*xyz 0 1 
n   0.000000000   0.000000000   0.000000000
p  -0.000000000  -1.500000000   0.000000000
s  -0.000000000  -3.000000000   0.000000000
*