!uks tpssh 6-31g(d,p) autoaux rijcosx nofinalgrid nofinalgridx d3bj normalprint noiter moread  defgrid3
%moinp "restart_opt_feiv_bistsmp_is_tpssh_6_31gdp.qro" 
%scf
rotate {227,239,90,0,0} {227,239,90,1,1} end
end
%output
print[ p_basis ] 2
print[ p_mos ] 1
end
#[bh2]
*xyz 0 2 
b  -0.001200000   0.386800000   0.000000000
h  -1.019500000  -0.193700000   0.000000000
h   1.020700000  -0.193000000   0.000000000
*