! uks b3lyp def2-tzvp tightscf slowconv uno uco d3bj autoaux moread notrah noiter 
%moinp "3-1_b3lyp_fat_pathologic.gbw"
%loc
locmet pm
end
%pal nprocs 32
end
%maxcore 7500
%method
specialgridatoms 26
specialgridintacc 7
end
#[nh2]
*xyz 0 2 
n  -0.000000000   0.400600000   0.000000000
h  -0.831600000  -0.200300000   0.000000000
h   0.831600000  -0.200300000   0.000000000
*