! uks ri-scs-wpbepp86 sp def2-svp def2-svp/c rijcosx def2/j strongscf miniprint printbasis printmos defgrid1 kdiis nososcf float
%pal nprocs 6 end
%maxcore 2000
%scf
guessmode fmatrix
maxiter 512
directresetfreq 10
diismaxeq 10
end
%mp2
density relaxed
end
%cis
donto true
mode riints_disk
nroots 32
dcorr 1
maxcore 2000
end
#b(hashtag)[ph]
*xyz 0 2 
b   2.115400000   0.003500000   0.000000000
p  -0.380900000  -0.009900000   0.000000000
h  -1.734400000   0.006400000   0.000000000
*