!uks b3lyp def2-tzvp verytightscf uno uco pal8   nofinalgrid nofinalgridx   d3bj defgrid3
%scf maxiter 3000 end
%basis newgto fe "cp(ppp)" end
end
%method
 specialgridatoms 26
 specialgridintacc 7
end
#f[ph]
*xyz 0 2 
f   1.166600000  -0.287600000   0.000000000
p  -0.108000000   0.673300000   0.000000000
h  -1.058600000  -0.385700000   0.000000000
*
%eprnmr
nuclei = all fe {fgrad, rho}
end