!b97-3c opt cpcm(thf) tightscf def2/j miniprint nomoprint defgrid1 kdiis nososcf nopop float
%pal nprocs 16 end
%maxcore 1792
%geom constraints
 { b 2 39 c }
 { b 2 9 c }
 end
 end
#s=pcl
*xyz 0 1 
s  -1.542600000  -0.449800000   0.000000000
p   0.035900000   0.932400000   0.000000000
cl   1.506700000  -0.482700000   0.000000000
*