! uks tpssh d3bj def2-tzvpp def2/j rijcosx usesym tightscf noautostart normalprint xyzfile pal8
! opt numfreq 
%method 
symthresh 5.0e-2 
end
%base"opt_fe_iii_hs_tpssh_def2tzvpp_d3"
#[nh2]
*xyz 0 2 
n  -0.000000000   0.400600000   0.000000000
h  -0.831600000  -0.200300000   0.000000000
h   0.831600000  -0.200300000   0.000000000
*