! ri-sos-wb88pp86 sp def2-svp def2-svp/c rijcosx def2/j strongscf miniprint nomoprint defgrid1 kdiis nososcf float
%pal nprocs 6 end
%maxcore 2000
%scf
guessmode fmatrix
maxiter 512
directresetfreq 10
diismaxeq 10
end
%cis
mode riints_disk
nroots 8
triplets true
dcorr 1
maxcore 2000
end
#s=pcl
*xyz 0 1 
s  -1.542600000  -0.449800000   0.000000000
p   0.035900000   0.932400000   0.000000000
cl   1.506700000  -0.482700000   0.000000000
*