! wb97x-d4 normalopt def2-svp rijcosx def2/j tightscf miniprint nomoprint defgrid1 kdiis nososcf float
%pal nprocs 6 end
%maxcore 2000
%scf
guessmode fmatrix
maxiter 512
directresetfreq 10
diismaxeq 10
end
#n1=po1
*xyz 0 1 
n  -0.617400000   0.652900000  -0.000000000
p   1.023800000   0.096300000   0.000000000
o  -0.406500000  -0.749200000   0.000000000
*