!uks bp86 opt slowconv def2-tzvp uno uco def2-tzvp/c nofinalgrid nofinalgridx d3bj defgrid3
%pal nprocs 24
end
%scf
maxiter 1500
shift shift 0.5 erroff 0 end
end
#[nh2]
*xyz 0 2 
n  -0.000000000   0.400600000   0.000000000
h  -0.831600000  -0.200300000   0.000000000
h   0.831600000  -0.200300000   0.000000000
*