! rhf sp def2-tzvp def2-tzvp/c rijcosx def2/j tightscf miniprint nomoprint
%pal nprocs 10 end
%maxcore 16000
%cis
nroots 4
triplets true
dcorr 3
maxcore 16000
end
#c1(hashtag)cs1
*xyz 0 1 
c   0.538700000   0.597400000   0.000000000
c   0.538700000  -0.597400000  -0.000000000
s  -1.077400000   0.000000000  -0.000000000
*