! uks b3lyp tzvp tzvp/j tightscf nofinalgrid  defgrid3
%method
specialgridatoms 26
specialgridintacc 7
end
#o=[sh]
*xyz 0 2 
o   1.217800000  -0.239200000   0.000000000
s  -0.063900000   0.520600000   0.000000000
h  -1.153900000  -0.281300000   0.000000000
*
%eprnmr 
nuclei = all fe {fgrad, rho}
end