! uks b3lyp def2-tzvp tightscf slowconv uno uco d3bj autoaux moread notrah noiter 
%moinp "3-1_b3lyp_fat_pathologic.gbw"
%pal nprocs 32
end
%maxcore 7500
%basis
newgto fe "cp(ppp)" end
newgto h "epr-iii" end
end
%method
specialgridatoms 26
specialgridintacc 7
end
#[bh2]
*xyz 0 2 
b  -0.001200000   0.386800000   0.000000000
h  -1.019500000  -0.193700000   0.000000000
h   1.020700000  -0.193000000   0.000000000
*
%eprnmr
gtensor 1
dtensor so
nuclei = all h {aiso}
end