! 6-31g(d,p) autoaux normalprint moread noiter 
%pal nprocs 32
end
%maxcore 7500
%moinp "restart_opt_feiv_bistsmp_is_tpssh_6_31gdp.qro"
%scf
rotate {227,239,90,0,0} {227,239,90,1,1} end
end
%output
print[ p_basis ] 2
print[ p_mos ] 1
end
#o=p
*xyz 0 1 
o   1.215600000  -0.273200000   0.000000000
p  -0.151800000   0.682800000   0.000000000
h  -1.063800000  -0.409600000   0.000000000
*