!uks tpssh 6-31g(d,p) autoaux rijcosx uno uco nofinalgrid nofinalgridx d3bj moread noiter  defgrid3
%pal nprocs 24
end
%moinp "restart_opt_feiv_bistsmp_is_tpssh_6_31gdp_gbw.qro"
%output 
print[ p_basis ] 2 
print[ p_mos ] 1 
end
#s=[sh]
*xyz 0 2 
s   1.490600000  -0.180600000   0.000000000
s  -0.390400000   0.659200000   0.000000000
h  -1.100200000  -0.478600000   0.000000000
*