!uks tpssh 6-31g(d,p) autoaux rijcosx uno uco nofinalgrid nofinalgridx d3bj moread noiter  defgrid3
%pal nprocs 24
end
%moinp "restart_opt_feiv_bistsmp_is_tpssh_6_31gdp_gbw.qro"
%output 
print[ p_basis ] 2 
print[ p_mos ] 1 
end
#[bh]f
*xyz 0 2 
b  -0.117700000   0.437200000   0.000000000
f   1.189900000  -0.184500000   0.000000000
h  -1.072100000  -0.252700000   0.000000000
*