!rks bp86 d3bj ri def2-svp def2/j tightscf nofinalgrid optts freq defgrid3
%pal nprocs 8 end
%maxcore 4000
%scf maxiter 1000 end
%geom maxiter 500
      inhess read
      inhessname "ts-f1175.hess"
      ts_search ef
      ts_mode {m 0} end
end
#b(hashtag)sf
*xyz 0 1 
b   2.004000000   0.003800000   0.000000000
s  -0.299300000  -0.010000000   0.000000000
f  -1.704700000   0.006200000   0.000000000
*