! ri-scs-wb88pp86 sp def2-svp def2-svp/c rijcosx def2/j strongscf miniprint nomoprint defgrid1 kdiis nososcf float
%pal nprocs 6 end
%maxcore 2000
%scf
guessmode fmatrix
maxiter 512
directresetfreq 10
diismaxeq 10
end
%cis
mode riints_disk
nroots 8
triplets true
dcorr 1
maxcore 2000
end
#s1ss1
*xyz 0 1 
s  -1.045500000  -0.554800000   0.000000000
s   1.003200000  -0.628000000  -0.000000000
s   0.042200000   1.182800000  -0.000000000
*