!rks tpssh 6-31g(d,p) autoaux rijcosx uno uco nofinalgrid nofinalgridx d3bj moread noiter  defgrid3
%pal nprocs 24
end
%moinp "skatole_opt.gbw"
%output 
print[ p_basis ] 2 
print[ p_mos ] 1 
end
#n(hashtag)[sh]
*xyz 0 1 
n   1.262900000  -0.231100000   0.000000000
s  -0.214500000   0.640700000   0.000000000
h  -1.048300000  -0.409600000   0.000000000
*