!uks b3lyp 6-31g(d,p) autoaux rijcosx nofinalgrid nofinalgridx d3bj moread defgrid3
%moinp "opt_feiv_bistsmp_is_b3lyp_6_31gdp.gbw"
%pal nprocs 32
end
%maxcore 7500
%tddft
donto true
doquad true
maxdim 5
nroots 50
end
#[bh]f
*xyz 0 2 
b  -0.117700000   0.437200000   0.000000000
f   1.189900000  -0.184500000   0.000000000
h  -1.072100000  -0.252700000   0.000000000
*