! ri-wb2plyp sp def2-svp def2-svp/c rijcosx def2/j strongscf miniprint nomoprint defgrid1 kdiis nososcf float
%pal nprocs 6 end
%maxcore 2000
%scf
guessmode fmatrix
maxiter 512
directresetfreq 10
diismaxeq 10
end
%cis
mode riints_disk
nroots 8
triplets true
dcorr 1
maxcore 2000
end
#p1=ps1
*xyz 0 1 
p  -1.092100000  -0.596600000   0.000000000
p   1.092100000  -0.596600000  -0.000000000
s  -0.000000000   1.193100000   0.000000000
*