!uks bp86 def2-tzvp def2-tzvp/c nofinalgrid nofinalgridx d3bj moread noiter  defgrid3
%pal nprocs 24
end
%moinp "si_is_opt.gbw"
%output 
print[ p_basis ] 2 
print[ p_mos ] 1 
end
#[nh]cl
*xyz 0 2 
n  -0.327100000   0.467100000   0.000000000
cl   1.294100000  -0.132200000   0.000000000
h  -0.967000000  -0.334900000   0.000000000
*