!uks pbe0 def2-tzvpp tightscf 
%output
print[ p_atpopmo_l ] 1
print[ p_reducedorbpopmo_l] 1
end
#[nh]cl
*xyz 0 2 
n  -0.327100000   0.467100000   0.000000000
cl   1.294100000  -0.132200000   0.000000000
h  -0.967000000  -0.334900000   0.000000000
*
%eprnmr 
gtensor true printlevel 3  
nuclei = all h {aiso, adip, aorb} 
nuclei = all c {aiso, adip, aorb}
nuclei = all n {aiso, adip, aorb} 
end