! rks bp86 d3bj def2-svp def2/j slowconv tightscf  optts freq 
%scf
  maxiter  2000
  end
%maxcore 1900
%pal
  nprocs 24
  end
%geom
  calc_hess true
  convergence tight
  end
%freq temp 393.15
  end
%cpcm
  smd true
  smdsolvent "dibutylether"
  end
%method
  specialgridatoms 53   specialgridintacc 7
  end
#n(hashtag)cf
*xyz 0 1 
n  -1.221000000  -0.000000000   0.000000000
c  -0.061000000   0.000000000   0.000000000
f   1.282000000  -0.000000000   0.000000000
*