!uks b3lyp def2-tzvp def2/j d3bj verytightscf rijcosx nofinalgrid nofinalgridx noautostart moread noiter  defgrid3
%pal nprocs 24
end
%moinp "p_is_opt_gbw.qro"
%basis
newgto fe "cp(ppp)" end
newauxgto fe "def2/j" end
end
%output 
print[ p_basis ] 2 
print[ p_mos ] 1 
end
#[bh]f
*xyz 0 2 
b  -0.117700000   0.437200000   0.000000000
f   1.189900000  -0.184500000   0.000000000
h  -1.072100000  -0.252700000   0.000000000
*