!uks bp86 def2-tzvp def2-tzvp/c nofinalgrid nofinalgridx d3bj moread noiter  defgrid3
%pal nprocs 24
end
%moinp "si_is_opt.qro"
%output 
print[ p_basis ] 2 
print[ p_mos ] 1 
end
#[nh]f
*xyz 0 2 
n  -0.171500000   0.447300000   0.000000000
f   1.064100000  -0.164900000   0.000000000
h  -0.892600000  -0.282500000   0.000000000
*