! allowrhf zora-def2-svp def2-svp/c zora
! somf(1x) moread noiter
%moinp "mnf6_casscf.gbw"
%mrci
  citype mrci
  intmode ritrafo
  soc
    dossc true
    dosoc true
   end
  newblock 5 *
    nroots 5
    excitations none
    refs cas (4,5) end
   end
  newblock 3 *
    nroots 45
    excitations none
    refs cas (4,5) end
   end
 end
#fscl
*xyz 0 1 
f  -1.245300000  -0.484800000   0.000000000
s  -0.250500000   0.761000000   0.000000000
cl   1.495700000  -0.276200000   0.000000000
*