!uks tpssh def2-tzvpp def2/j rijcosx nofinalgrid nofinalgridx d3bj verytightscf moread uno uco defgrid3
%moinp "opt_feiv_bistsmp_is_tpssh_def2_tzvpp.gbw"
%tddft
donto true
doquad true
nroots 150
end
%pal nprocs 32
end
%maxcore 7500
%scf
maxiter 500
end
#[ch]=o
*xyz 0 2 
c  -0.037000000  -0.000000000   0.000000000
o   1.139000000   0.000000000   0.000000000
h  -1.102000000   0.000000000   0.000000000
*