! pbe d3bj def2-svp def2/j tightscf irc defgrid3 nofinalgrid miniprint nomoprint
%pal nprocs 40 end
%maxcore 4300
%irc
direction backward
inithess read
hess_filename "freq_pbed3_2sp.hess"
maxiter 256
tolrmsg 1.5e-4
tolmaxg 6.0e-4
end
#b1=s=n1
*xyz 0 1 
b  -0.122500000   0.406300000   0.000000000
s  -0.781300000  -0.247500000   0.000000000
n   0.903700000  -0.158900000   0.000000000
*