! uks ri-wb2plyp sp def2-svp def2-svp/c rijcosx def2/j tightscf miniprint nomoprint nofinalgrid kdiis nososcf float defgrid3
%pal nprocs 2 end
%maxcore 4300
%scf
guessmode fmatrix
maxiter 512
directresetfreq 10
diismaxeq 10
end
%cis
mode riints_disk
nroots 8
triplets true
dcorr 1
maxcore 4300
end
#o=[sh]
*xyz 0 2 
o   1.217800000  -0.239200000   0.000000000
s  -0.063900000   0.520600000   0.000000000
h  -1.153900000  -0.281300000   0.000000000
*