!uks b3lyp d3bj def2-svp rijcosx def2/j tightscf nofinalgrid optts freq uno uco defgrid3
%pal nprocs 8 end
%maxcore 4000
%scf maxiter 1000 end
%geom maxiter 500
      inhess read
      inhessname "fq181.hess"
      ts_search ef
      trust 0.2
      ts_mode {m 0} end
end
#n(hashtag)[ph]
*xyz 0 2 
n   1.259800000   0.260200000   0.000000000
p  -0.190600000  -0.689800000   0.000000000
h  -1.069200000   0.429600000   0.000000000
*