! zoom-neb-ts pbe d3bj def2-svp def2/j normalopt nofinalgrid miniprint nomoprint defgrid3
%pal nprocs 40 end
%maxcore 4300
%neb
neb_end_xyzfile "end.xyz"
end
#b(hashtag)ccl
*xyz 0 1 
b   1.963200000   0.000100000   0.000000000
c  -0.139600000  -0.000200000   0.000000000
cl  -1.823600000   0.000100000   0.000000000
*