! uks b3lyp def2-tzvp tightscf slowconv uno uco d3bj autoaux moread notrah
%moinp "3-2-3_b3lyp_fat_read.gbw"
%scf
maxiter 2000
diismaxeq 15
directresetfreq 1
end
%basis
newgto fe "cp(ppp)" end
end
%pal nprocs 32
end
%maxcore 7500
%method
specialgridatoms 26
specialgridintacc 7
end
#[ph2]
*xyz 0 2 
p  -0.000000000   0.641500000   0.000000000
h   1.048300000  -0.320800000   0.000000000
h  -1.048300000  -0.320800000   0.000000000
*
%eprnmr
nuclei = all fe {fgrad, rho}
end