!uks tpssh 6-31g(d,p) autoaux rijcosx nofinalgrid nofinalgridx d3bj normalprint noiter moread  defgrid3
%moinp "restart_opt_feiv_bistsmp_is_tpssh_6_31gdp.gbw" 
%output
print[ p_basis ] 2
print[ p_mos ] 1
end
#o=[sh]
*xyz 0 2 
o   1.217800000  -0.239200000   0.000000000
s  -0.063900000   0.520600000   0.000000000
h  -1.153900000  -0.281300000   0.000000000
*