!uks tpssh def2-svp def2/j rijcosx nofinalgrid nofinalgridx d3bj moread tightscf cpcm(water) defgrid3
%moinp "restart_opt_feiv_bistsmp_is_tpssh_6_31gdp.gbw"
%pal nprocs 32
end
%maxcore 7500
%basis
newgto fe "def2-tzvp" end
newauxgto fe "def2/j" end
end
%tddft
donto true
doquad true
nroots 50
end
#[nh]f
*xyz 0 2 
n  -0.171500000   0.447300000   0.000000000
f   1.064100000  -0.164900000   0.000000000
h  -0.892600000  -0.282500000   0.000000000
*