! ri-wb2plyp sp minix def2-svp/c rijcosx def2/j normalscf miniprint nomoprint nofinalgrid kdiis nososcf float defgrid3
%pal nprocs 10 end
%maxcore 16000
%scf
guessmode fmatrix
maxiter 512
directresetfreq 10
diismaxeq 10
end
%cis
nroots 4
triplets true
dcorr 3
maxcore 16000
end
#n1=ns1
*xyz 0 1 
n  -0.516200000   0.620200000   0.000000000
n  -0.516200000  -0.620200000   0.000000000
s   1.032400000  -0.000000000   0.000000000
*