! ri-wb2plyp sp def2-svp def2-svp/c rijcosx def2/j tightscf miniprint nomoprint nofinalgrid kdiis nososcf float defgrid3
%pal nprocs 1 end
%maxcore 4300
%scf
guessmode fmatrix
maxiter 512
directresetfreq 10
diismaxeq 10
end
%cis
mode riints_disk
nroots 4
triplets true
dcorr 1
maxcore 4300
end
#o=bcl
*xyz 0 1 
o   1.736900000   0.275400000   0.000000000
b   0.014500000  -0.544000000   0.000000000
cl  -1.751400000   0.268600000   0.000000000
*