! pbe d3bj def2-svp def2/j normalopt nofinalgrid miniprint nomoprint defgrid3
%pal nprocs 40 end
%maxcore 4300
%geom 
constraints
{ b 1 iiiii c } 
{ b 0 iiiii c }
end
end
#n(hashtag)sf
*xyz 0 1 
n  -1.284000000   0.329800000   0.000000000
s   0.071500000  -0.721600000   0.000000000
f   1.212500000   0.391800000   0.000000000
*