! uks b3lyp def2-tzvp tightscf slowconv uno uco d3bj autoaux moread notrah noiter 
%moinp "3-1_b3lyp_fat_pathologic.gbw"
%loc
locmet pm
end
%pal nprocs 32
end
%maxcore 7500
%method
specialgridatoms 26
specialgridintacc 7
end
#[oh]
*xyz 0 2 
o   0.488900000   0.000000000   0.000000000
h  -0.488900000   0.000000000   0.000000000
*