! def2-svp def2/jk conv moread noautostart 
%moinp "feois-prep1.qro"
%scf rotate {31, 38, 90} {34, 37, 90} end end
%casscf
	nel 12
	norb 9
	nroots 1
        mult 3
	trafostep ri
	shiftup 1.0
	shiftdn 1.0
        ci
        maxdim 100
        nguessmat 10000
        maxiter 100
        end
        end
#b1=s=n1
*xyz 0 1 
b  -0.122500000   0.406300000   0.000000000
s  -0.781300000  -0.247500000   0.000000000
n   0.903700000  -0.158900000   0.000000000
*