!pal6 energy
%Compound
Variable var1 = 1;
Variable var2 = 1.0;
Variable var3 = "This is a string";
print("An integer variable %20d", var1);
print("A double variable %20.3lf", var2);
print("A string variable %-20s", var3);
End
#B(hashtag)[SH]
*xyz 0 1 
B   1.705300000  -0.003000000   0.000000000
S  -0.279300000   0.008300000   0.000000000
H  -1.426000000  -0.005200000   0.000000000
*