!pal6 rhf svp tightscf
%maxcore 5000
%mdci
nroots 4 #no of roots
CVSORB 0,3 #orbital considered for core-valence separation
FollowCIS true # Follow the initial guess orbital
CVSEP true # Core valence separation
DoCVS true # Core valence separation (currently both the option needs to be true)
DoCore true # Directly target the core
corehole 0 # The state from which it will count the roots
printlevel 3 # the printing options
maxiter 500 # no of iteration, generally requires larger no of roots
end
#P(hashtag)[PH]
*xyz 0 2 
P   1.698000000   0.000800000   0.000000000
P  -0.147000000  -0.001800000   0.000000000
H  -1.551000000   0.001000000   0.000000000
*