!pal6 def2-tzvp verytightscf
%METHOD
# non-local grids
VdwAngularGrid 2 # same scheme as the SCF ones
VdWIntAcc 5.0 # determines no. of radial points
VdwGridPruning Adaptive # default
VdwDistTCut 10 # cutoff distance between grid points, in angstroem
END
#[NH2]
*xyz 0 2 
N  -0.000000000   0.400600000   0.000000000
H  -0.831600000  -0.200300000   0.000000000
H   0.831600000  -0.200300000   0.000000000
*