!pal6 ma-def2-svp tightscf
%mdci
#UHF EOM parameters - defaults displayed
DoEOM false # whether to perform EOM
DoAlpha false # removal/attachment of an alpha electron (IP/EA calculations)
DoBeta false # removal/attachment of a beta electron (IP/EA calculations)
NDav 20 # maximum size of reduced space (i.e. 20*NRoots)
UseQROs false
CheckEachRoot true # check convergence for each root separately
RootHoming true # apply root homing
NInitS 0 # number of roots in the initial guess, if 0, use preset value
DOCOSXEOM false # use COSX approximation for external exchange term in EOM
DOAOX3E false # use COSX approximation for 4 external terms contribution
# to 3 external intermediate
DoRootwise false # solves for each root separately,
# more stable for large number of roots
FOLLOWCIS true # follows the initial singles guess
DTol 1e-5 # default for EOM residual threshold
#keywords which affect EOM parameters, but do not belong to the routine itself
NRoots 9 # number of roots
OTol 1e-14 # orthogonalization threshold
KCOpt KC_AOX # AO exchange for the four external contributions
# (the only option available at present)
PrintLevel 3 # the amount of information to be printed
MaxCore 500 # total amount of memory
end
#[BH]Cl
*xyz 0 2 
B  -0.274000000   0.445200000   0.000000000
Cl   1.470800000  -0.154000000   0.000000000
H  -1.196900000  -0.291200000   0.000000000
*