!pal6 rhf mp2 tzvpp verytightscf xyzfile pmodel
%method
Method DFT
DoMP2 True
Exchange X_PBE
Correlation C_B95
LDAOpt C_PWLDA # specific for B95
ScalDFX 0.34
ScalHFX 0.66
ScalGGAC 0.55
ScalLDAC 0.55 # must be equal to ScalGGAC
ScalMP2C 1.00 # for all DSD-DFs
D3S6 0.61
D3S8 0
D3A1 0 # for all DSD-DFs
D3A2 6.2
end
#[CH]=O
*xyz 0 2 
C  -0.037000000  -0.000000000   0.000000000
O   1.139000000   0.000000000   0.000000000
H  -1.102000000   0.000000000   0.000000000
*