!pal6 uks b3lyp/g svp tightscf
%geom
Trust 0.3 # Trust <0 - use fixed trust radius (default: -0.3 au)
# Trust >0 - use trust radius update, i.e. 0.3 means:
# start with trust radius 0.3 and use trust radius update
end
#P1=S=P1
*xyz 0 1 
P  -1.092100000  -0.596600000  -0.000000000
S   0.000000000   1.193100000  -0.000000000
P   1.092100000  -0.596600000   0.000000000
*