!pal6 cc-pvtz cc-pvtz/c dlpno-ccsd(t) normalpno tightscf
%method
UseSFitting false # equals to NoSFitting in the simple
# input. Default is true.
UseQGradFit true # uses the SCF fitting matrix for
# gradient calculations. Default
# is false.
end
#[NH2]
*xyz 0 2 
N  -0.000000000   0.400600000   0.000000000
H  -0.831600000  -0.200300000   0.000000000
H   0.831600000  -0.200300000   0.000000000
*