!pal6 aug-cc-pvdz aug-cc-pvdz/c verytightscf
%md
Timestep 1.0_fs
Timestep 41.3_au # identical
Timestep 1.0 # identical, as default time unit in MD module is fs
end
#B1=C=P1
*xyz 0 1 
B  -0.207600000   0.528400000   0.000000000
C  -0.772400000  -0.358100000   0.000000000
P   0.980000000  -0.170300000   0.000000000
*