!pal6 hf def2-tzvp
%Compound
Variable var1 = 1.0;
Variable var2 = 2.0;
variable var3 = 3.0;
variable var4 = 4.0;
if (var1 > var2 or var3>var4) then
print(" %.1lf is bigger than %.1lf or %.1lf is bigger than %.1lf",var1,var2,var3,var4);
else
print(" %.1lf is smaller than %.1lf and %.1lf is smaller than %.1lf",var1,var2,var3,var4);
end
#N1=NS1
*xyz 0 1 
N  -0.516200000   0.620200000   0.000000000
N  -0.516200000  -0.620200000   0.000000000
S   1.032400000  -0.000000000   0.000000000
*