!pal6 b3lyp nl
%Compound
Variable var1 = 1.0;
Variable var2 = 2.0;
if (var1 > var2) then
print(" %.1lf is bigger than %.1lf ", var1, var2);
else
print(" %.1lf is smaller than %.1lf ", var1, var2);
end
#ClCl
*xyz 0 1 
Cl   1.010000000   0.000000000   0.000000000
Cl  -1.010000000   0.000000000   0.000000000
*