!pal6 rijonx
%output
Print[ P_AtCharges_M ] 1 # Print atomic charges
Print[ P_OrbCharges_M ] 1 # Print orbital charges
Print[ P_FragCharges_M] 1 # Print fragment charges
Print[ P_BondOrder_M ] 1 # Print bond orders
Print[ P_FragBondOrder_M ] 1# Print fragment b.o.
Print[ P_ReducedOrbPop_M ] 1# Print reduced orb. Charges
Print[ P_AtPopMO_M ] 1 # Print atomic charges in
# each MO
Print[ P_OrbPopMO_M ] 1 # Print orbital populaiton
# for each MO
Print[ P_ReducedOrbPopMO_M] 1 # Print reduced orbital1124 9 Detailed Documentation
# pop for each MO
Print[ P_FragPopMO_M ] 1 # Print the fragment
# population for for each MO
end
#[BH2]
*xyz 0 2 
B  -0.001200000   0.386800000   0.000000000
H  -1.019500000  -0.193700000   0.000000000
H   1.020700000  -0.193000000   0.000000000
*