!pal6 b3lyp def2-tzvp
%geom
Trust 0.3 # Trust <0 - use fixed trust radius (default: -0.3 au)
# Trust >0 - use trust radius update, i.e. 0.3 means:
# start with trust radius 0.3 and use trust radius update
end
#FN=S
*xyz 0 1 
F  -1.174000000  -0.352100000   0.000000000
N  -0.165300000   0.588100000   0.000000000
S   1.339300000  -0.236100000   0.000000000
*