!pal6 rhf mp2 tzvpp verytightscf xyzfile pmodel
%maxcore 5000
%mdci
nroots 2 #no of roots
CVSORB 2,3 #orbital considered for core-valence separation
FollowCIS true # Follow the initial guess orbital
CVSEP true # Core valence separation
DoCVS true # Core valence separation (currently both the option needs to be true)
DoCore true # Directly target the core
corehole 2 # The state from which it will count the roots
printlevel 3 # the printing options
maxiter 500 # no of iteration, generally requires larger no of roots
end
#[PH2]
*xyz 0 2 
P  -0.000000000   0.641500000   0.000000000
H   1.048300000  -0.320800000   0.000000000
H  -1.048300000  -0.320800000   0.000000000
*