!pal6 sv
%md
Timestep 0.5_fs
Initvel 300_K
Thermostat NHC 300_K Timecon 10.0_fs
Dump Position Stride 1 Filename "trajectory.xyz"
Restart IfExists
Run 100
end
#N1=PS1
*xyz 0 1 
N  -0.023600000   0.887900000   0.000000000
P   1.068700000  -0.429100000   0.000000000
S  -1.045100000  -0.458800000   0.000000000
*