!pal6 b3lyp zora zora-tzvp
%Compound
Variable var1 = 1.0;
Variable var2 = 2.0;
if (var1 > var2) then
print(" %.1lf is bigger than %.1lf ", var1, var2);
else
print(" %.1lf is smaller than %.1lf ", var1, var2);
end
#S
*xyz 0 1 
S   0.000000000   0.613300000   0.000000000
H  -0.975800000  -0.306600000   0.000000000
H   0.975800000  -0.306600000   0.000000000
*