!pal6 sc-nevpt2 nevpt2
%METHOD
# non-local grids
VdwAngularGrid 2 # same scheme as the SCF ones
VdWIntAcc 5.0 # determines no. of radial points
VdwGridPruning Adaptive # default
VdwDistTCut 10 # cutoff distance between grid points, in angstroem
END
#F[PH]
*xyz 0 2 
F   1.166600000  -0.287600000   0.000000000
P  -0.108000000   0.673300000   0.000000000
H  -1.058600000  -0.385700000   0.000000000
*