!pal6 bp86 ma-def2-svp tightscf
%TDDFT IROOT 2
JROOT 1
#IROOTMULT TRIPLET would search in the triplet PES
#SF TRUE would search for the S0-S1 CI from a T1 reference, using SF-TD-DFT
# (but remember to set the multiplicity as 3 instead of 1)
END
#B(hashtag)[PH]
*xyz 0 2 
B   2.115400000   0.003500000   0.000000000
P  -0.380900000  -0.009900000   0.000000000
H  -1.734400000   0.006400000   0.000000000
*