!pal6 hf def2-svp uhf tightscf pmodel
%method
UseSFitting false # equals to NoSFitting in the simple
# input. Default is true.
UseQGradFit true # uses the SCF fitting matrix for
# gradient calculations. Default
# is false.
end
#O=BF
*xyz 0 1 
O   1.749600000  -0.319800000   0.000000000
B  -0.180100000   0.764000000   0.000000000
F  -1.569500000  -0.444200000   0.000000000
*