!pal6 rijonx
%geom
Trust 0.3 # Trust <0 - use fixed trust radius (default: -0.3 au)
# Trust >0 - use trust radius update, i.e. 0.3 means:
# start with trust radius 0.3 and use trust radius update
end
#N=S
*xyz 0 1 
N  -0.321600000   0.466600000   0.000000000
S   1.285600000  -0.133300000   0.000000000
H  -0.964000000  -0.333400000   0.000000000
*