!uks bp86 def2-tzvp def2-tzvp/c nofinalgrid nofinalgridx d3bj moread noiter  defgrid3
%pal nprocs 24
end
%moinp "si_is_opt.gbw"
%output 
print[ p_basis ] 2 
print[ p_mos ] 1 
end
#[ph]cl
*xyz 0 2 
p  -0.360200000   0.709200000   0.000000000
cl   1.464400000  -0.205400000   0.000000000
h  -1.104200000  -0.503800000   0.000000000
*