! uks ri-wb2plyp sp def2-svp def2-svp/c rijcosx def2/j tightscf miniprint nomoprint nofinalgrid kdiis nososcf float defgrid3
%pal nprocs 20 end
%maxcore 8600
%scf
guessmode fmatrix
maxiter 512
directresetfreq 10
diismaxeq 10
end
%cis
nroots 8
triplets true
dcorr 1
maxcore 8600
end
#[oh]
*xyz 0 2 
o   0.488900000   0.000000000   0.000000000
h  -0.488900000   0.000000000   0.000000000
*