!zora-tzvp zora moread defgrid3
%maxcore 12000
%pal nprocs 12 end
%moinp "casscf-3-5-feiii-gtensor.gbw"
%casscf maxiter 1
        nel   3
        norb  5       
        nroots 3
        mult  2
        rel
          dosoc true
	  gtensor true
          printlevel 4
	  ndoubgtensor 1
        end
end
#clocl
*xyz 0 1 
cl   1.380700000  -0.319900000   0.000000000
o  -0.000000000   0.639800000   0.000000000
cl  -1.380700000  -0.319900000   0.000000000
*