! wb97x-d3bj opt freq def2-tzvpp def2/j rijcosx verytightscf
! pal8 defgrid3 verytightopt
%maxcore 4096
%geom				  step qn
  maxiter 300
    calc_hess true
end
%chelpg			  grid 0.1
  rmax 3.0
end
%method
  z_tol    1e-10
end
#c1(hashtag)p=n1
*xyz 0 1 
c  -0.615200000  -0.691100000   0.000000000
p   1.091800000  -0.061100000  -0.000000000
n  -0.476600000   0.752200000   0.000000000
*