!roks pbe0 def2-tzvpp tightscf 
%output
print[ p_atpopmo_l ] 1
print[ p_reducedorbpopmo_l] 1
end
#[nh2]
*xyz 0 2 
n  -0.000000000   0.400600000   0.000000000
h  -0.831600000  -0.200300000   0.000000000
h   0.831600000  -0.200300000   0.000000000
*
%eprnmr 
gtensor true printlevel 3  
nuclei = all h {aiso, adip, aorb} 
nuclei = all c {aiso, adip, aorb}
nuclei = all n {aiso, adip, aorb} 
end