! rks bp86 d3bj def2-svp def2/j slowconv tightscf  tightopt freq
%scf
  maxiter  500
  end
%maxcore  1900
%pal
  nprocs  8
  end
%cpcm
  smd true
  smdsolvent "dibutylether"
  end
#c1(hashtag)ss1
*xyz 0 1 
c   0.000000000  -0.840100000   0.000000000
s   1.106400000   0.420100000   0.000000000
s  -1.106400000   0.420100000   0.000000000
*