! wb97x-d4 normalopt def2-svp rijcosx def2/j def2-svp/c tightscf miniprint nomoprint defgrid1 kdiis nososcf float
%pal nprocs 6 end
%maxcore 2000
%scf
guessmode fmatrix
maxiter 512
directresetfreq 10
diismaxeq 10
end
%cis
mode aoints
nroots 4
iroot 1
irootmult singlet
triplets false
maxcore 1000
end
#n(hashtag)[sh]
*xyz 0 1 
n   1.262900000  -0.231100000   0.000000000
s  -0.214500000   0.640700000   0.000000000
h  -1.048300000  -0.409600000   0.000000000
*