!uks b3lyp def2-tzvpp def2/j rijcosx nofinalgrid nofinalgridx d3bj verytightscf moread uno uco defgrid3
%moinp "opt_feiv_bistsmp_is_b3lyp_def2_tzvpp.gbw"
%tddft
donto true
doquad true
nroots 150
end
%pal nprocs 32
end
%maxcore 7500
%scf
maxiter 500
end
#f[ph]
*xyz 0 2 
f   1.166600000  -0.287600000   0.000000000
p  -0.108000000   0.673300000   0.000000000
h  -1.058600000  -0.385700000   0.000000000
*