! uks tpssh d3bj def2-tzvpp def2/j rijcosx usesym tightscf noautostart normalprint xyzfile pal8
! opt numfreq 
%method 
symthresh 5.0e-2 
end
%base"opt_fe_iii_ls_tpssh_def2tzvpp_d3"
#[bh]f
*xyz 0 2 
b  -0.117700000   0.437200000   0.000000000
f   1.189900000  -0.184500000   0.000000000
h  -1.072100000  -0.252700000   0.000000000
*