! wb97x-d3
! def2-tzvpp
! def2/j rijcosx
! defgrid2
! scfconv7
! smallprint printgap noloewdin
! nososcf
%maxcore 8000
%output
       print[p_bondorder_m] 1
       print[p_mayer] 1
       print[p_basis] 2
end
%pal
    nprocs 4
end
#b1=c=p1
*xyz 0 1 
b  -0.207600000   0.528400000   0.000000000
c  -0.772400000  -0.358100000   0.000000000
p   0.980000000  -0.170300000   0.000000000
*