! wb97x-d3
! def2-tzvpp
! def2/j rijcosx
! defgrid2
! scfconv7
! smallprint printgap noloewdin
! nososcf
%maxcore 8000
%output
       print[p_bondorder_m] 1
       print[p_mayer] 1
       print[p_basis] 2
end
%pal
    nprocs 5
end
%cpcm
    smd    true
    smdsolvent "1-octanol"
end
#n(hashtag)p
*xyz 0 1 
n   0.745700000   0.000000000   0.000000000
p  -0.745700000   0.000000000   0.000000000
*