!uks b3lyp 6-31g(d,p) autoaux rijcosx nofinalgrid nofinalgridx d3bj moread defgrid3
%moinp "opt_feiv_bistsmp_is_b3lyp_6_31gdp.gbw"
%pal nprocs 32
end
%maxcore 7500
%tddft
donto true
maxdim 5
nroots 50
end
#f[ph]
*xyz 0 2 
f   1.166600000  -0.287600000   0.000000000
p  -0.108000000   0.673300000   0.000000000
h  -1.058600000  -0.385700000   0.000000000
*