! optts freq pbeh-3c rijcosx cpcm(acetonitrile) 
%geom
calc_hess true
recalc_hess 30
trust -0.1
maxiter 150
end
%cpcm
surfacetype vdw_gaussian
end
%output 
xyzfile=true 
end 
%scf 
maxiter 250 
end
%output
print[p_hirshfeld] = 1
end
% maxcore
3000
%pal nprocs 16
end
#focl
*xyz 0 1 
f  -1.209800000  -0.333500000   0.000000000
o  -0.127200000   0.580000000   0.000000000
cl   1.337100000  -0.246500000   0.000000000
*