! optts freq pbeh-3c rijcosx cpcm(ch2cl2)
%cpcm
surfacetype vdw_gaussian
end
%geom
modify_internal
{ b 2 3 a } end
end
%output 
xyzfile=true 
end 
%scf 
maxiter 250 
end
%output
print[p_hirshfeld] = 1
end
% maxcore
3000
%geom
calc_hess true
recalc_hess 30
trust -0.1
maxiter 150
end
%pal nprocs 16
end
#s1=s=s=1
*xyz 0 1 
s  -0.719800000   0.939500000   0.000000000
s  -0.453700000  -1.093100000   0.000000000
s   1.173600000   0.153600000   0.000000000
*