! uks bp86 tzvp tzvp/j tightscf nofinalgrid  defgrid3
%method
specialgridatoms 26
specialgridintacc 7
end
#b(hashtag)[ph]
*xyz 0 2 
b   2.115400000   0.003500000   0.000000000
p  -0.380900000  -0.009900000   0.000000000
h  -1.734400000   0.006400000   0.000000000
*
%eprnmr 
nuclei = all fe {fgrad, rho}
end