!uks tpssh 6-31g(d,p) autoaux rijcosx nofinalgrid nofinalgridx d3bj normalprint noiter moread  defgrid3
%moinp "restart_opt_feiv_bistsmp_is_tpssh_6_31gdp.qro" 
%scf
rotate {227,239,90,0,0} {227,239,90,1,1} end
end
%output
print[ p_basis ] 2
print[ p_mos ] 1
end
#f[ph]
*xyz 0 2 
f   1.166600000  -0.287600000   0.000000000
p  -0.108000000   0.673300000   0.000000000
h  -1.058600000  -0.385700000   0.000000000
*