! wb97x-d3 opt freq def2-tzvpp def2/j rijcosx tightscf
! pal8 defgrid3 tightopt
%maxcore 4096
%geom
  maxiter 200
      calc_hess true
  recalc_hess 30
end
%chelpg
  grid 0.1
  rmax 3.0
end
#b(hashtag)c
*xyz 0 1 
b   1.662100000  -0.000700000   0.000000000
c  -0.313300000   0.001900000   0.000000000
h  -1.348900000  -0.001300000   0.000000000
*