! uks b3lyp def2-tzvp tightscf slowconv uno uco d3bj autoaux moread notrah
%moinp "3-2-3_b3lyp_fat_read.gbw"
%scf
maxiter 2000
diismaxeq 15
directresetfreq 1
end
%basis
newgto fe "cp(ppp)" end
end
%pal nprocs 32
end
%maxcore 7500
%method
specialgridatoms 26
specialgridintacc 7
end
#[bh]f
*xyz 0 2 
b  -0.117700000   0.437200000   0.000000000
f   1.189900000  -0.184500000   0.000000000
h  -1.072100000  -0.252700000   0.000000000
*
%eprnmr
nuclei = all fe {fgrad, rho}
end