! pbe d3bj def2-svp def2/j normalopt nofinalgrid miniprint nomoprint defgrid3
%pal nprocs 40 end
%maxcore 4300
%geom 
constraints
{ b 0 1 c } 
end
end
#p(hashtag)ccl
*xyz 0 1 
p  -1.591500000   0.002800000   0.000000000
c  -0.068100000  -0.005200000   0.000000000
cl   1.659600000   0.002400000   0.000000000
*