! ri-wb2plyp sp def2-msvp def2-svp/c rijcosx def2/j normalscf miniprint nomoprint nofinalgrid kdiis nososcf float defgrid3
%pal nprocs 40 end
%maxcore 4300
%scf
guessmode fmatrix
maxiter 512
directresetfreq 10
diismaxeq 10
end
%cis
nroots 4
triplets true
dcorr 1
maxcore 4300
end
#n(hashtag)[sh]
*xyz 0 1 
n   1.262900000  -0.231100000   0.000000000
s  -0.214500000   0.640700000   0.000000000
h  -1.048300000  -0.409600000   0.000000000
*