! sp ri-mp2 ri-jk def2-sv(p) def2/jk def2-svp/c miniprint printbasis printmos
%pal nprocs 40 end
%maxcore 4000
%mp2
density unrelaxed
natorbs true
end
#n(hashtag)ccl
*xyz 0 1 
n  -1.360700000   0.000000000   0.000000000
c  -0.200700000  -0.000000000   0.000000000
cl   1.561300000   0.000000000   0.000000000
*