! wb2plyp sp def2-tzvp def2-tzvp/c rijcosx def2/j tightscf miniprint nomoprint nofinalgrid kdiis nososcf defgrid3
%pal nprocs 10 end
%maxcore 16000
%scf
guessmode fmatrix
maxiter 512
directresetfreq 10
diismaxeq 10
end
%cis
nroots 4
triplets true
dcorr 3
maxcore 16000
end
#b1=bs1
*xyz 0 1 
b   1.428300000  -0.005000000   0.000000000
b  -0.706100000   0.660500000   0.000000000
s  -0.722300000  -0.655500000   0.000000000
*