!uks b3lyp d3bj def2-svp rijcosx def2/j tightscf nofinalgrid opt defgrid3
%pal nprocs 8 end
%maxcore 4000
%scf maxiter 1000 end
%geom maxiter 500
      scan b 8 3 = 2.10, 1.20, 20       end
end
#[nh2]
*xyz 0 2 
n  -0.000000000   0.400600000   0.000000000
h  -0.831600000  -0.200300000   0.000000000
h   0.831600000  -0.200300000   0.000000000
*