!b97-3c optts freq cpcm(thf) tightscf def2/j def2/j miniprint nomoprint defgrid1 kdiis nososcf nopop float
%pal nprocs 16 end
%maxcore 3000
%geom 
inhess read
inhessname "ald+nhc+dbuh-associate-scan-004-freq-03.hess"
end
#ocl
*xyz 0 1 
o  -0.321600000   0.434800000   0.000000000
cl   1.264800000  -0.122400000   0.000000000
h  -0.943200000  -0.312400000   0.000000000
*