! wb2plyp sp def2-tzvpd def2-tzvpd/c rijcosx autoaux tightscf miniprint nomoprint nofinalgrid kdiis nososcf defgrid3
%pal nprocs 10 end
%maxcore 16000
%scf
guessmode fmatrix
maxiter 512
directresetfreq 10
diismaxeq 10
end
%cis
nroots 4
triplets true
dcorr 3
maxcore 16000
end
#b1=no1
*xyz 0 1 
b  -0.848900000  -0.513200000   0.000000000
n   1.056500000  -0.260400000   0.000000000
o  -0.207600000   0.773600000   0.000000000
*