! uks tpssh 6-31g(d,p) nofinalgrid nofinalgridx d3bj autoaux normalprint moread  defgrid3
%pal nprocs 32
end
%maxcore 7500
%moinp "restart_opt_feiv_bistsmp_is_tpssh_6_31gdp.qro"
%scf
rotate {227,239,90,0,0} {227,239,90,1,1} end
end
%casscf 
nel 4 
norb 5 
mult 3 
nroots 1 
end
%output
print[ p_basis ] 2
print[ p_mos ] 1
end
#[sh]
*xyz 0 2 
s   0.676600000   0.000000000   0.000000000
h  -0.676600000   0.000000000   0.000000000
*