! rijcosx pmodel slowconv tightscf d3bj zora-def2-svp sarc/j cpcm(acetonitrile) bhandhlyp zora ri-somf(1x)
! moread
%moinp "start.gbw"
%basis
newgto au "sarc-zora-tzvp" end
newgto pt "sarc-zora-tzvp" end
end
%pal
 nprocs 32
end
%maxcore 3500
%tddft
   nroots   30
   donto    true
   dosoc    true
end
#p(hashtag)p
*xyz 0 1 
p   0.942100000   0.000000000   0.000000000
p  -0.942100000   0.000000000   0.000000000
*