! wb97x-d3bj opt freq def2-tzvpp def2/j rijcosx verytightscf
! pal8 defgrid3 verytightopt
%maxcore 4096
%geom				    maxiter 300
    calc_hess true
end
%chelpg			  grid 0.1
  rmax 3.0
end
%method
  z_tol    1e-10
end
%elprop
  dipole true
  quadrupole true
  polar 1
end
#c1(hashtag)so1
*xyz 0 1 
c   0.462600000  -0.680800000  -0.000000000
s  -1.035900000   0.046800000   0.000000000
o   0.573300000   0.633900000   0.000000000
*