! b3lyp uks normalopt 6-31g* rijcosx autoaux tightscf miniprint nomoprint nofinalgrid kdiis nososcf float defgrid3
%pal nprocs 1 end
%maxcore 4300
%scf
guessmode fmatrix
maxiter 512
directresetfreq 10
diismaxeq 10
end
#[nh]cl
*xyz 0 2 
n  -0.327100000   0.467100000   0.000000000
cl   1.294100000  -0.132200000   0.000000000
h  -0.967000000  -0.334900000   0.000000000
*