! freq pbeh-3c rijcosx cpcm(ch2cl2)
%cpcm
surfacetype vdw_gaussian
end
%output 
xyzfile=true 
end 
%scf 
maxiter 250 
end
%output
print[p_hirshfeld] = 1
end
% maxcore
3000
%pal nprocs 16
end
#s=pcl
*xyz 0 1 
s  -1.542600000  -0.449800000   0.000000000
p   0.035900000   0.932400000   0.000000000
cl   1.506700000  -0.482700000   0.000000000
*