!uks b3lyp def2-tzvp  verytightscf  uno uco pal8 nofinalgrid d3bj def2-tzvp/c defgrid3
%scf maxiter 3000 end
%basis 
	newgto fe "cp(ppp)" end
end
%method
 specialgridatoms 26
 specialgridintacc 7
end
#[bh2]
*xyz 0 2 
b  -0.001200000   0.386800000   0.000000000
h  -1.019500000  -0.193700000   0.000000000
h   1.020700000  -0.193000000   0.000000000
*
%eprnmr
nuclei = all fe {fgrad, rho}
end