!uks tpssh def2-svp def2/j rijcosx nofinalgrid nofinalgridx d3bj moread tightscf defgrid3
%moinp "restart_opt_feiv_bistsmp_is_tpssh_6_31gdp.gbw"
%pal nprocs 32
end
%maxcore 7500
%basis
newgto fe "def2-tzvp" end
newauxgto fe "def2/j" end
end
%tddft
donto true
doquad true
nroots 50
end
#[ch]=s
*xyz 0 2 
c  -0.244400000  -0.000000000   0.000000000
s   1.553900000   0.000000000   0.000000000
h  -1.309400000   0.000000000   0.000000000
*