!uks pbe0 def2-svp def2/j rijcosx nofinalgrid nofinalgridx d3bj moread tightscf defgrid3
%moinp "restart_opt_feiv_bistsmp_is_pbe_6_31gdp_numfreq.gbw"
%pal nprocs 32
end
%maxcore 7500
%basis
newgto fe "def2-tzvp" end
newauxgto fe "def2/j" end
end
%tddft
donto true
doquad true
nroots 50
end
#n(hashtag)[ph]
*xyz 0 2 
n   1.259800000   0.260200000   0.000000000
p  -0.190600000  -0.689800000   0.000000000
h  -1.069200000   0.429600000   0.000000000
*