! uks ri-scs-wpbepp86 sp def2-svp def2-svp/c rijcosx def2/j strongscf miniprint printbasis printmos defgrid1 kdiis nososcf float
%pal nprocs 6 end
%maxcore 2000
%scf
guessmode fmatrix
maxiter 512
directresetfreq 10
diismaxeq 10
end
%mp2
density relaxed
end
%cis
tda false
donto true
mode riints_disk
nroots 16
dcorr 1
maxcore 2000
end
#[oh]
*xyz 0 2 
o   0.488900000   0.000000000   0.000000000
h  -0.488900000   0.000000000   0.000000000
*