! uks b3lyp def2-tzvp tightscf slowconv d3bj autoaux moread noiter 
%moinp "3-2-3_b3lyp_fat_pathologic_loc.loc"
%output
printlevel normal
print[ p_basis       ] 2
print[ p_mos         ] 1
print[ p_density     ] 1
print[ p_spindensity ] 1
end
%pal nprocs 32
end
%maxcore 7500
%method
specialgridatoms 26
specialgridintacc 7
end
#o=[sh]
*xyz 0 2 
o   1.217800000  -0.239200000   0.000000000
s  -0.063900000   0.520600000   0.000000000
h  -1.153900000  -0.281300000   0.000000000
*