!b97-3c optts freq cpcm(thf) tightscf def2/j def2/j miniprint nomoprint defgrid1 kdiis nososcf nopop float
%pal nprocs 16 end
%maxcore 3000
%geom 
maxstep 0.1
trust -0.1
end
#o=c=o
*xyz 0 1 
o  -1.405000000  -0.000000000   0.000000000
c  -0.000000000   0.000000000   0.000000000
o   1.405000000  -0.000000000   0.000000000
*