! rohf def2-svp nori moread noiter
%moinp "rohf_from_restart_from_opt_feiv_bistsmp_is_tpssh_6_31gdp_nori.gbw"
%pal
nprocs 32
end
%maxcore 7500 
%loc 
locmet pm 
maxiter 128 
end
%output
print[ p_basis ] 2
print[ p_mos ] 1
end
#o=[sh]
*xyz 0 2 
o   1.217800000  -0.239200000   0.000000000
s  -0.063900000   0.520600000   0.000000000
h  -1.153900000  -0.281300000   0.000000000
*