! uks b3lyp d3bj def2-tzvpp def2-tzvpp/j rijcosx usesym tightscf noautostart normalprint xyzfile pal22
! opt numfreq 
%method 
symthresh 5.0e-2 
end
%base"opt_fe_iii_ls_b3lyp_def2tzvpp_d3"
#[nh]cl
*xyz 0 2 
n  -0.327100000   0.467100000   0.000000000
cl   1.294100000  -0.132200000   0.000000000
h  -0.967000000  -0.334900000   0.000000000
*