! uks b3lyp def2-tzvp tightscf slowconv d3bj autoaux moread noiter 
%moinp "3-2-3_b3lyp_fat_pathologic_loc.loc"
%output
printlevel normal
print[ p_basis       ] 2
print[ p_mos         ] 1
print[ p_density     ] 1
print[ p_spindensity ] 1
end
%pal nprocs 32
end
%maxcore 7500
%method
specialgridatoms 26
specialgridintacc 7
end
#[nh]f
*xyz 0 2 
n  -0.171500000   0.447300000   0.000000000
f   1.064100000  -0.164900000   0.000000000
h  -0.892600000  -0.282500000   0.000000000
*