!uks b3lyp 6-31g(d,p) autoaux rijcosx nofinalgrid nofinalgridx d3bj moread defgrid3
%moinp "opt_feiv_bistsmp_is_b3lyp_6_31gdp.gbw"
%pal nprocs 32
end
%maxcore 7500
%tddft
donto true
doquad true
nroots 150
end
#p(hashtag)[ph]
*xyz 0 2 
p   1.698000000   0.000800000   0.000000000
p  -0.147000000  -0.001800000   0.000000000
h  -1.551000000   0.001000000   0.000000000
*