! rhf sp cc-pvdz cc-pvdz/c rijcosx autoaux tightscf miniprint nomoprint
%pal nprocs 10 end
%maxcore 16000
%cis
nroots 4
triplets true
dcorr 3
maxcore 16000
end
#b(hashtag)scl
*xyz 0 1 
b   2.272200000  -0.005000000   0.000000000
s  -0.247900000   0.012000000   0.000000000
cl  -2.024300000  -0.007000000   0.000000000
*