! ri-scs-wb88pp86 sp def2-svp def2-svp/c rijcosx def2/j strongscf miniprint nomoprint defgrid1 kdiis nososcf float
%pal nprocs 6 end
%maxcore 2000
%scf
guessmode fmatrix
maxiter 512
directresetfreq 10
diismaxeq 10
end
%cpcm 
epsilon 2.38
refrac 1.497
end
%cis
mode riints_disk
nroots 8
triplets true
dcorr 1
maxcore 2000
end
#n(hashtag)p
*xyz 0 1 
n   0.745700000   0.000000000   0.000000000
p  -0.745700000   0.000000000   0.000000000
*