! normalopt def2-svp rijcosx def2/j tightscf miniprint nomoprint defgrid1 kdiis nososcf float
%pal nprocs 6 end
%maxcore 2000
%method
method dft
functional hyb_gga_xc_wb97x_v
end
%scf
guessmode fmatrix
maxiter 512
directresetfreq 10
diismaxeq 10
end
#b(hashtag)ccl
*xyz 0 1 
b   1.963200000   0.000100000   0.000000000
c  -0.139600000  -0.000200000   0.000000000
cl  -1.823600000   0.000100000   0.000000000
*