!pal6 ma-def2-sv(p) ri34-cisd ri-nevpt2 ao-qcisd cisd printmos damp double tightscf cpcm(chloroform)
%mm
ShiftForceCoulomb true 
Rigid_MM_Water false 
end
#C1(hashtag)P=N1
*xyz 0 1 
C  -0.615200000  -0.691100000   0.000000000
P   1.091800000  -0.061100000  -0.000000000
N  -0.476600000   0.752200000   0.000000000
*