!pal6 tightscf 6-31g tpss defgrid2 d4 gdiis-opt normalopt noautostart
%method
   D4s6 0.61
   D4s8 0
   D4a1 0
   D4a2 6.2
end
%geom
Scan
B 0 1 = 1.16, 2.32, 5
end
end
#N(hashtag)CCl
*xyz 0 1 
N  -1.360700000   0.000000000   0.000000000
C  -0.200700000  -0.000000000   0.000000000
Cl   1.561300000   0.000000000   0.000000000
*