!pal6 tightscf pcsseg-2 mpwlyp rijonx defgrid2 uhf d3bj autoaux autoaux opt verytightopt noautostart
%method
   D3s6 0.61
   D3s8 0
   D3a1 0
   D3a2 6.2
end
%mp2 Density relaxed end
%geom
Scan
B 0 1 = 1.49, 2.98, 5
end
Calc_Hess true
Recalc_Hess 1
Constraints
{B 0 1 1.49 C}
{B 0 2 2.37 C}
{B 1 2 1.35 C}
end
end
#O=[SH]
*xyz 0 2 
O   1.217800000  -0.239200000   0.000000000
S  -0.063900000   0.520600000   0.000000000
H  -1.153900000  -0.281300000   0.000000000
*