!pal6 tightscf aug-pcsseg-0 glyp rijk defgrid3 rhf nl autoaux autoaux opt normalopt noautostart
%method NLb 5.0 end
%scf AutoTRAH false end
%mp2 Density relaxed end
%geom
Scan
B 0 1 = 1.98, 3.97, 5
end
Constraints
{B 0 1 1.98 C}
{B 0 2 3.13 C}
{B 1 2 1.15 C}
end
end
#B(hashtag)[SH]
*xyz 0 1 
B   1.705300000  -0.003000000   0.000000000
S  -0.279300000   0.008300000   0.000000000
H  -1.426000000  -0.005200000   0.000000000
*