!pal6 x2c-sv(p)all uhf rijonx scfconv9 autoaux cc-pvtz-f12-optri gdiis-opt tightopt noautostart numfreq defgrid3 engrad autoaux
%scf ConvForced true end
%geom
Scan
B 0 2 = 1.03, 2.05, 5
end
Constraints
{B 0 1 1.38 C}
{B 0 2 1.03 C}
{B 1 2 1.96 C}
end
end
%freq
CentralDiff false
end
#[NH]F
*xyz 0 2 
N  -0.171500000   0.447300000   0.000000000
F   1.064100000  -0.164900000   0.000000000
H  -0.892600000  -0.282500000   0.000000000
*