!pal6 tightscf def2-sv(p) tpss ri nofinalgridx gdiis-opt normalopt noautostart
%geom
Scan
B 1 2 = 1.66, 3.32, 5
end
Constraints
{B 0 1 1.66 C}
{B 0 2 2.76 C}
{B 1 2 1.66 C}
end
end
#O=S=O
*xyz 0 1 
O  -1.382400000  -0.305000000   0.000000000
S  -0.000000000   0.610000000   0.000000000
O   1.382400000  -0.305000000   0.000000000
*