!pal6 tightscf cc-pcv5z qcisd(t) rhf autoaux anfreq defgrid3 autoaux
%scf ConvForced true end
%mdci
locRandom 0
end
%freq
Hess2ElFlags 1,2,2,1
end
#B(hashtag)CCl
*xyz 0 1 
B   1.963200000   0.000100000   0.000000000
C  -0.139600000  -0.000200000   0.000000000
Cl  -1.823600000   0.000100000   0.000000000
*