!pal6 tightscf def2-qzvp ri-scs-wb2gp-plyp defgrid2 uhf autoaux
%mp2 Density unrelaxed end
%tddft
nroots 9
upop true
dcorr 1
doscs true
tda true
end
%scf convforced true end
#[BH2]
*xyz 0 2 
B  -0.001200000   0.386800000   0.000000000
H  -1.019500000  -0.193700000   0.000000000
H   1.020700000  -0.193000000   0.000000000
*