!pal6 tightscf def2-qzvpd scs-b2gp-plyp21 rijonx nocosx rhf d3zero autoaux autoaux
%method
   D3S6 1.0000
   D3RS6 1.2170
   D3S8 0.7220
   D3ALPHA6 14.0
end
%mp2 Density unrelaxed end
#C1(hashtag)SO1
*xyz 0 1 
C   0.462600000  -0.680800000  -0.000000000
S  -1.035900000   0.046800000   0.000000000
O   0.573300000   0.633900000   0.000000000
*