!pal6 tightscf ano-pvtz eom-ccsd rhf autoaux
%scf ConvForced true end
%mdci
nroots 9
DoCOSXEOM true
DoAOX3e true
KCOpt KC_AOBLAS
locRandom 0
end
#C1(hashtag)P=N1
*xyz 0 1 
C  -0.615200000  -0.691100000   0.000000000
P   1.091800000  -0.061100000  -0.000000000
N  -0.476600000   0.752200000   0.000000000
*