!pal6 tightscf 3-21g sos-rsx-qidh rijcosx defgrid1 uhf autoaux autoaux
%tddft
nroots 9
upop true
dcorr 1
doscs true
tda true
end
%scf convforced true end
#O=[SH]
*xyz 0 2 
O   1.217800000  -0.239200000   0.000000000
S  -0.063900000   0.520600000   0.000000000
H  -1.153900000  -0.281300000   0.000000000
*