!pal6 6-31g* rhf dlpno-mp2-f12 scfconv10 tightpno autoaux cc-pcvqz-f12-optri gdiis-opt tightopt noautostart numfreq defgrid3 engrad autoaux
%scf ConvForced true end
%geom
Scan
B 1 2 = 2.06, 4.12, 5
end
end
%freq
CentralDiff false
end
#O=S=S
*xyz 0 1 
O  -1.459800000  -0.393800000   0.000000000
S  -0.186300000   0.667600000   0.000000000
S   1.646100000  -0.273700000   0.000000000
*