!pal6 jun-cc-pv(q+d)z uhf dlpno-ccsd(t)-f12 normalscf normalpno autoaux cc-pvtz-f12-optri
%scf ConvForced true end
%mdci LocRandom 0 end
%cis
nroots 9
end
%scf convforced true end
#[BH]F
*xyz 0 2 
B  -0.117700000   0.437200000   0.000000000
F   1.189900000  -0.184500000   0.000000000
H  -1.072100000  -0.252700000   0.000000000
*