!pal6 tightscf cc-pvqz-f12-optri m06l defgrid3 d3zero opt tightopt noautostart anfreq autoaux
%method
   D3S6 1.0000
   D3RS6 1.2170
   D3S8 0.7220
   D3ALPHA6 14.0
end
%geom
Scan
B 0 1 = 1.31, 2.62, 5
end
Constraints
{B 0 1 1.31 C}
end
end
%freq
Hess2ElFlags 1,1,1,1
end
#B(hashtag)B
*xyz 0 1 
B   0.654800000   0.000000000   0.000000000
B  -0.654800000   0.000000000   0.000000000
*