!pal6 tightscf sapporo-dzp-2012 dlpno-ccsd(t1) uhf uno tightpno autoaux gdiis-opt tightopt noautostart numgrad
%scf ConvForced true end
%mdci
locRandom 0
UseQROs true
end
%geom
Scan
B 0 2 = 1.18, 2.36, 5
end
Constraints
{B 0 1 1.84 C}
{B 0 2 1.18 C}
{B 1 2 2.67 C}
end
end
#[BH]Cl
*xyz 0 2 
B  -0.274000000   0.445200000   0.000000000
Cl   1.470800000  -0.154000000   0.000000000
H  -1.196900000  -0.291200000   0.000000000
*