!pal6 tightscf jul-cc-pv(t+d)z ri-dsd-blyp defgrid3 rhf autoaux opt normalopt noautostart
%mp2 Density unrelaxed end
%geom
Scan
B 0 1 = 1.50, 3.00, 5
end
end
#B(hashtag)P=O
*xyz 0 1 
B   0.000000000   0.000000000   0.000000000
P  -0.000000000  -1.500000000   0.000000000
O  -0.000000000  -3.000000000   0.000000000
*