!pal6 sto-3g rhf rijcosx loosescf autoaux cc-pvdz-f12-optri gdiis-opt tightopt noautostart
%scf ConvForced true end
%geom
Scan
B 1 2 = 1.63, 3.27, 5
end
Calc_Hess true
Recalc_Hess 1
Constraints
{B 0 1 1.92 C}
{B 0 2 1.44 C}
{B 1 2 1.63 C}
end
end
#B1=NO1
*xyz 0 1 
B  -0.848900000  -0.513200000   0.000000000
N   1.056500000  -0.260400000   0.000000000
O  -0.207600000   0.773600000   0.000000000
*