!pal6 cpcm(cyclohexane) tightscf aug-pcsseg-1 scs-b2gp-plyp21 defgrid1 uhf autoaux
%mp2 Density unrelaxed end
%tddft
nroots 9
dcorr 1
end
%scf convforced true end
#O=[SH]
*xyz 0 2 
O   1.217800000  -0.239200000   0.000000000
S  -0.063900000   0.520600000   0.000000000
H  -1.153900000  -0.281300000   0.000000000
*