!pal6 tightscf x2c-tzvppall-s b3lyp rijcosx defgrid2 uhf d3bj autoaux autoaux opt verytightopt noautostart
%method
   D3s6 0.61
   D3s8 0
   D3a1 0
   D3a2 6.2
end
%mp2 Density relaxed end
%geom
Scan
B 0 2 = 1.42, 2.85, 5
end
end
#[PH2]
*xyz 0 2 
P  -0.000000000   0.641500000   0.000000000
H   1.048300000  -0.320800000   0.000000000
H  -1.048300000  -0.320800000   0.000000000
*