!pal6 aug-cc-pwcvdz/c ao-ccsd hueckel aox-qcisd(t) aox-ncepa/1 moread soscfwb97
%md
Timestep 1.0_fs
Thermostat NHC 300_K Timecon 10.0_fs
Timestep 0.5_fs
end
#[BH]F
*xyz 0 2 
B  -0.117700000   0.437200000   0.000000000
F   1.189900000  -0.184500000   0.000000000
H  -1.072100000  -0.252700000   0.000000000
*