!pal6 ma-dkh-def2-tzvp(-f) ao-ncpf/1 double aox-qcisd(t) mo-cpf/1 ao-ccsd mp2 nofrozencore readints ccsd-f12 ri34-cisd
%output
XYZFile true
end
#P(hashtag)[PH]
*xyz 0 2 
P   1.698000000   0.000800000   0.000000000
P  -0.147000000  -0.001800000   0.000000000
H  -1.551000000   0.001000000   0.000000000
*