!noiter
%rocis NRoots 3
Do_is true #Include DOMO->SOMO excitations
Do_sa true #Include SOMO->Virtual excitations
Do_ia true #Include DOMO->Virtual excitations
Do_ista true #Include DOMO->SOMO coupled to
#SOMO->Virtual excitations with #s not equal t
Do_isa true #Include DOMO->SOMO coupled to
#SOMO->Virtual excitations with #s = t
#---------------------------------
#by default all switches for the
#excitation classes are set to
#``true''
#---------------------------------
end
#N(hashtag)P
*xyz 0 1 
N   0.745700000   0.000000000   0.000000000
P  -0.745700000   0.000000000   0.000000000
*