!rhf mp2 tzvpp verytightscf xyzfile pmodel
%casscf
nel 8
norb 6
mult 5
nroots 12
weights[0] = 0.7, 0.7, 0.7, 0.7, 0.7, 0.5, 0.5, 0.5, 0.5, 0.5, 0.5, 0.5
end
#OCl
*xyz 0 1 
O  -0.321600000   0.434800000   0.000000000
Cl   1.264800000  -0.122400000   0.000000000
H  -0.943200000  -0.312400000   0.000000000
*