!frozencore nofrozencore
%scf HFTyp ROHF
ROHF_case CAHF # configuration averaged HF
ROHF_NumOp 3 # 3 operators in this case: closed, open1, open2
ROHF_NOrb[1] 3,2 # 3 orbitals in first open shell, 2 in the second
ROHF_NEl[1] 2,1 # 2 electrons in first open shell, 1 in the second
end
#[SH]
*xyz 0 2 
S   0.676600000   0.000000000   0.000000000
H  -0.676600000   0.000000000   0.000000000
*