!noiter nevpt2 def2-svp def2-svp/c
%mecp
SurfCrossOpt true # switches on the MECP optimization
# alternatively use: ! SurfCrossOpt
SurfCrossNumFreq true # switches on the MECP effective Hessian
# calculation
# alternatively use: ! SurfCrossNumFreq
# separate MO input for the second spin state (PES2)
moinp "Myfile.gbw"# MO input for PES2
# information on the electronic structure of PES 2
Mult 3 # multiplicity of PES2
brokenSym 1,1 # broken symmetry for PES2
# CASSCF options for PES2 (also see the CASSCF chapter)
casscf_nel 6 # number of active space electrons
casscf_norb 6 # number of active orbitals
casscf_mult 1,3 # multiplicities singlet and triplet
casscf_nroots 4,2 # four singlets, two triplets
casscf_bweight 2,1 # singlets and triplets weighted 2:1
casscf_weights[0] = 0.5,0.2,0.2,0.2 # singlet weights
casscf_weights[1] = 0.7,0.3 # triplet weights
end
#C1(hashtag)SS1
*xyz 0 1 
C   0.000000000  -0.840100000   0.000000000
S   1.106400000   0.420100000   0.000000000
S  -1.106400000   0.420100000   0.000000000
*