!ri-mp2 def2-tzvp def2-tzvp/c tightscf
%geom
Trust 0.3 # Trust <0 - use fixed trust radius (default: -0.3 au)
# Trust >0 - use trust radius update, i.e. 0.3 means:
# start with trust radius 0.3 and use trust radius update
end
#P(hashtag)[PH]
*xyz 0 2 
P   1.698000000   0.000800000   0.000000000
P  -0.147000000  -0.001800000   0.000000000
H  -1.551000000   0.001000000   0.000000000
*